[SYSNAME.CPUNAME]
type=AtomicSimpleCPU
children=dstage2_mmu dtb interrupts isa istage2_mmu itb tracer workload
branchPred=Null
checker=Null
clk_domain=SYSNAME.cpu_clk_domain
cpu_id=CPUID
default_p_state=UNDEFINED
do_checkpoint_insts=true
do_quiesce=true
do_statistics_insts=true
dstage2_mmu=SYSNAME.CPUNAME.dstage2_mmu
dtb=SYSNAME.CPUNAME.dtb
eventq_index=0
fastmem=false
function_trace=false
function_trace_start=0
interrupts=SYSNAME.CPUNAME.interrupts
isa=SYSNAME.CPUNAME.isa
istage2_mmu=SYSNAME.CPUNAME.istage2_mmu
itb=SYSNAME.CPUNAME.itb
max_insts_all_threads=0
max_insts_any_thread=0
max_loads_all_threads=0
max_loads_any_thread=0
numThreads=1
p_state_clk_gate_bins=20
p_state_clk_gate_max=1000000000000
p_state_clk_gate_min=1000
power_model=Null
profile=0
progress_interval=0
simpoint_start_insts=
simulate_data_stalls=false
simulate_inst_stalls=false
socket_id=0
switched_out=false
system=SYSNAME
tracer=SYSNAME.CPUNAME.tracer
width=1
workload=SYSNAME.CPUNAME.workload
dcache_port=SYSNAME.membus.slave[P2]
icache_port=SYSNAME.membus.slave[P1]

[SYSNAME.CPUNAME.dstage2_mmu]
type=ArmStage2MMU
children=stage2_tlb
eventq_index=0
stage2_tlb=SYSNAME.CPUNAME.dstage2_mmu.stage2_tlb
sys=SYSNAME
tlb=SYSNAME.CPUNAME.dtb

[SYSNAME.CPUNAME.dstage2_mmu.stage2_tlb]
type=ArmTLB
children=walker
eventq_index=0
is_stage2=true
size=32
walker=SYSNAME.CPUNAME.dstage2_mmu.stage2_tlb.walker

[SYSNAME.CPUNAME.dstage2_mmu.stage2_tlb.walker]
type=ArmTableWalker
clk_domain=SYSNAME.cpu_clk_domain
default_p_state=UNDEFINED
eventq_index=0
is_stage2=true
num_squash_per_cycle=2
p_state_clk_gate_bins=20
p_state_clk_gate_max=1000000000000
p_state_clk_gate_min=1000
power_model=Null
sys=SYSNAME

[SYSNAME.CPUNAME.dtb]
type=ArmTLB
children=walker
eventq_index=0
is_stage2=false
size=64
walker=SYSNAME.CPUNAME.dtb.walker

[SYSNAME.CPUNAME.dtb.walker]
type=ArmTableWalker
clk_domain=SYSNAME.cpu_clk_domain
default_p_state=UNDEFINED
eventq_index=0
is_stage2=false
num_squash_per_cycle=2
p_state_clk_gate_bins=20
p_state_clk_gate_max=1000000000000
p_state_clk_gate_min=1000
power_model=Null
sys=SYSNAME
port=SYSNAME.membus.slave[P4]

[SYSNAME.CPUNAME.interrupts]
type=ArmInterrupts
eventq_index=0



[SYSNAME.CPUNAME.isa]
type=ArmISA
decoderFlavour=Generic
eventq_index=0
fpsid=1090793632
id_aa64afr0_el1=0
id_aa64afr1_el1=0
id_aa64dfr0_el1=1052678
id_aa64dfr1_el1=0
id_aa64isar0_el1=0
id_aa64isar1_el1=0
id_aa64mmfr0_el1=15728642
id_aa64mmfr1_el1=0
id_isar0=34607377
id_isar1=34677009
id_isar2=555950401
id_isar3=17899825
id_isar4=268501314
id_isar5=0
id_mmfr0=270536963
id_mmfr1=0
id_mmfr2=19070976
id_mmfr3=34611729
midr=1091551472
pmu=Null
system=SYSNAME


[SYSNAME.CPUNAME.istage2_mmu]
type=ArmStage2MMU
children=stage2_tlb
eventq_index=0
stage2_tlb=SYSNAME.CPUNAME.istage2_mmu.stage2_tlb
sys=SYSNAME
tlb=SYSNAME.CPUNAME.itb

[SYSNAME.CPUNAME.istage2_mmu.stage2_tlb]
type=ArmTLB
children=walker
eventq_index=0
is_stage2=true
size=32
walker=SYSNAME.CPUNAME.istage2_mmu.stage2_tlb.walker

[SYSNAME.CPUNAME.istage2_mmu.stage2_tlb.walker]
type=ArmTableWalker
clk_domain=SYSNAME.cpu_clk_domain
default_p_state=UNDEFINED
eventq_index=0
is_stage2=true
num_squash_per_cycle=2
p_state_clk_gate_bins=20
p_state_clk_gate_max=1000000000000
p_state_clk_gate_min=1000
power_model=Null
sys=SYSNAME

[SYSNAME.CPUNAME.itb]
type=ArmTLB
children=walker
eventq_index=0
is_stage2=false
size=64
walker=SYSNAME.CPUNAME.itb.walker

[SYSNAME.CPUNAME.itb.walker]
type=ArmTableWalker
clk_domain=SYSNAME.cpu_clk_domain
default_p_state=UNDEFINED
eventq_index=0
is_stage2=false
num_squash_per_cycle=2
p_state_clk_gate_bins=20
p_state_clk_gate_max=1000000000000
p_state_clk_gate_min=1000
power_model=Null
sys=SYSNAME
port=SYSNAME.membus.slave[P3]

[SYSNAME.CPUNAME.tracer]
type=ExeTracer
eventq_index=0

[SYSNAME.CPUNAME.workload]
type=LiveProcess
cmd=#GEM5EXECUTABLE#
cwd=#LIBGEM5DIR#
drivers=
egid=100
env=
errout=cerr
euid=100
eventq_index=0
executable=#GEM5EXECUTABLE#
gid=100
input=cin
kvmInSE=false
max_stack_size=67108864
output=cout
pid=100
ppid=99
simpoint=0
system=SYSNAME
uid=100
useArchPT=false


